*--------------------------------------------------------------------------
* Specialized tube model
*
*    Type           : 12AU7 ECC82
*    Description    : Triode
*    Direct heated  : no
*    Screen present : no
*--------------------------------------------------------------------------
.subckt 12AU7GH P G K
Bp P K I=(0.01701593477m)*uramp(V(P,K)*ln(1.0+(-0.1251806139)+exp((1.234948774)+(1.234948774)*((34.50197863)+(-26.60747394m)*V(G,K))*V(G,K)/sqrt((22.53603268)**2+(V(P,K)-(-4.400778147))**2)))/(1.234948774))**(1.369425091)
Cgp G P 1.5pF
Cgk G K 1.6pF
Cpk P K 0.4pF
.ends 12AU7GH

* 12AU7 macro model
.subckt CC12AU7  P G K
    koren8(0.01734524121,-0.1044036842,1.181832084,35.27398526,-67.65049308,31.924937,0.322452539,1.362109643)
.ends CC12AU7