.SUBCKT Ham1650F P1 Sg1 B Sg2 P2 O16 O8 O4 Com
* Push Pull transformer, with Ultralinear taps at 40%
* 7600 to 16 ohms, 3db 15 to 60000 hz
* speaker taps at 8 and 4 ohms
*  Hammond 1650F
*   
*  model generated by TransformerModels.xls 2023 Jan 19
*  
LP1 1 Sg1 3.67078661099574
LS1 2 B 1.63146071599811
LS2 3 Sg2 1.63146071599811
LP2 4 P2 3.67078661099574
LA1 5 O8 0.00741645776380232
LA2 6 O4 0.00370822888190116
LA3 7 Com 0.02161314180004
KALL LP1 LS1 LS2 LP2 LA1 LA2 LA3 0.998434750532354
RP1 P1 1 30
RP2 Sg1 2 15
RP3 B 3 15
RP4 Sg2 4 30
RS1 O16 5 0.1
RS2 O8 6 0.1
RS3 O4 7 0.1
.ENDS Ham1650F