Version 4
SHEET 1 2212 840
WIRE -384 -544 -640 -544
WIRE -496 -464 -640 -464
WIRE -496 -384 -640 -384
WIRE -1024 -352 -1264 -352
WIRE -768 -352 -1024 -352
WIRE -752 -352 -768 -352
WIRE -384 -304 -640 -304
WIRE -912 -288 -960 -288
WIRE -752 -272 -832 -272
WIRE -912 -256 -992 -256
WIRE -960 -208 -960 -288
WIRE -912 -208 -960 -208
WIRE -384 -208 -640 -208
WIRE -768 -192 -832 -192
WIRE -752 -192 -768 -192
WIRE -1024 -176 -1024 -352
WIRE -912 -176 -1024 -176
WIRE -496 -128 -640 -128
WIRE -992 -112 -992 -256
WIRE -992 -112 -1264 -112
WIRE -752 -112 -992 -112
WIRE -384 -48 -640 -48
WIRE -384 16 -640 16
WIRE -384 96 -640 96
WIRE -384 176 -640 176
FLAG -768 -352 P1
FLAG -768 -192 P2
FLAG -1264 -352 +
IOPIN -1264 -352 BiDir
FLAG -1264 -112 -
IOPIN -1264 -112 BiDir
SYMBOL ind2 -768 -368 R0
WINDOW 0 -29 35 Left 2
WINDOW 3 -244 74 Left 2
SYMATTR InstName P1
SYMATTR Value {PrimaryInductance}
SYMATTR Type ind
SYMATTR SpiceLine Rser={getValue(|Primary|,|DCR|)}
SYMBOL dpdt -880 -272 R270
SYMATTR InstName U1
SYMATTR Value set={switch}
SYMBOL ind2 -624 -448 R180
WINDOW 0 -57 63 Left 2
WINDOW 3 -227 34 Left 2
SYMATTR InstName HV1
SYMATTR Value {Inductance(|HV1|)}
SYMATTR Type ind
SYMATTR SpiceLine Rser={SeriesResistance(|HV1|)}
SYMBOL ind2 -624 -368 R180
WINDOW 0 -57 63 Left 2
WINDOW 3 -227 34 Left 2
SYMATTR InstName HV2
SYMATTR Value {Inductance(|HV2|)}
SYMATTR Type ind
SYMATTR SpiceLine Rser={SeriesResistance(|HV2|)}
SYMBOL ind2 -624 -288 R180
WINDOW 0 -57 63 Left 2
WINDOW 3 -227 34 Left 2
SYMATTR InstName HV3
SYMATTR Value {Inductance(|HV3|)}
SYMATTR Type ind
SYMATTR SpiceLine Rser={SeriesResistance(|HV3|)}
SYMBOL ind2 -624 -112 R180
WINDOW 0 -57 63 Left 2
WINDOW 3 -227 34 Left 2
SYMATTR InstName RF1
SYMATTR Value {Inductance(|RF|)}
SYMATTR Type ind
SYMATTR SpiceLine Rser={SeriesResistance(|RF|)}
SYMBOL ind2 -624 -32 R180
WINDOW 0 -57 63 Left 2
WINDOW 3 -227 34 Left 2
SYMATTR InstName RF2
SYMATTR Value {Inductance(|RF|)}
SYMATTR Type ind
SYMATTR SpiceLine Rser={SeriesResistance(|RF|)}
SYMBOL ind2 -624 112 R180
WINDOW 0 -57 63 Left 2
WINDOW 3 -227 34 Left 2
SYMATTR InstName HT1
SYMATTR Value {Inductance(|HT|)}
SYMATTR Type ind
SYMATTR SpiceLine Rser={SeriesResistance(|HT|)}
SYMBOL ind2 -624 192 R180
WINDOW 0 -57 63 Left 2
WINDOW 3 -227 34 Left 2
SYMATTR InstName HT2
SYMATTR Value {Inductance(|HT|)}
SYMATTR Type ind
SYMATTR SpiceLine Rser={SeriesResistance(|HT|)}
SYMBOL ind2 -768 -208 R0
WINDOW 0 -29 35 Left 2
WINDOW 3 -244 74 Left 2
SYMATTR InstName P2
SYMATTR Value {PrimaryInductance}
SYMATTR Type ind
SYMATTR SpiceLine Rser={getValue(|Primary|,|DCR|)}
TEXT 240 -480 Left 2 !.param primaryInductance = 5 primaryVoltage = 240\n.func Primary(value) {table(value, |FIV|, 120 , |NIV|, 120, |DCR|, 12.46)}\n.func HV1(value) {table(value, |FIV|, 225 , |NIV|, (302.7-50.2), |FII|, 0.104)}\n.func HV2(value) {table(value, |FIV|, 50 , |NIV|, 50.2, |FII|, 0.104)}\n.func HV3(value) {table(value, |FIV|, 275 , |NIV|, 302.7, |FII|, 0.104)}\n.func RF(value) {table(value, |FIV|, 2.5 , |NIV|, (5.558/2), |FII|, 2)}\n.func HT(value) {table(value, |FIV|, 3.15 , |NIV|, (7.074/2), |FII|, 3)}
TEXT 240 -272 Left 2 !.func getValue(key, value) {table(key, 1, Primary(value), 2, HV1(value), 3, HV2(value), 4, HV3(value), 5, RF(value), 6, HT(value))}
TEXT 240 -536 Left 2 !.text Primary="1" HV1 = "2" HV2 = "3" HV3 = "4" RF = "5" HT = "6"\n.text FIV="1" NIV = "2" FII = "3" DCR = "4"
TEXT 240 -232 Left 2 !.func TurnsRatio(SV) {getValue(|Primary|,|FIV|)/SV}\n.func Regulation(FV, NV) {(NV-FV)/FV}\n.func SeriesResistance(w) {(getValue(w,|FIV|)*(Regulation(getValue(w,|FIV|), getValue(w,|NIV|))/2))/getValue(w,|FII|)}\n.func Inductance(w) = {PrimaryInductance/pwr(TurnsRatio(getValue(w,|NIV|)), 2)}\n.func loadResistor(w, i) {interpolateVoltage(w, i)/i}\n.func interpolateVoltage(w, i) {getValue(w, |NIV|) + (getValue(w, |FIV|) - getValue(w, |NIV|)) * i / getValue(w, |FII|)}
TEXT -1208 -24 Left 2 !.param switch=table(120, 0, 240, 1)
TEXT -936 -608 Left 2 !K1 P1 P2 HV1 HV2 HV3 RF1 RF2 HT1 HT2 0.995
TEXT -1340 460 Left 2 !.tran 0 1 0
