Version 4
SHEET 1 2212 840
WIRE -624 -544 -640 -544
WIRE -384 -544 -624 -544
WIRE -496 -464 -640 -464
WIRE -384 -416 -384 -464
WIRE -352 -416 -384 -416
WIRE -496 -384 -640 -384
WIRE -384 -384 -384 -416
WIRE -1024 -352 -1264 -352
WIRE -768 -352 -1024 -352
WIRE -752 -352 -768 -352
WIRE -384 -304 -640 -304
WIRE -912 -288 -960 -288
WIRE -752 -272 -832 -272
WIRE -912 -256 -992 -256
WIRE -960 -208 -960 -288
WIRE -912 -208 -960 -208
WIRE -624 -208 -640 -208
WIRE -384 -208 -624 -208
WIRE -1264 -192 -1264 -352
WIRE -768 -192 -832 -192
WIRE -752 -192 -768 -192
WIRE -1024 -176 -1024 -352
WIRE -912 -176 -1024 -176
WIRE -496 -128 -640 -128
WIRE -992 -112 -992 -256
WIRE -992 -112 -1264 -112
WIRE -752 -112 -992 -112
WIRE -384 -48 -640 -48
WIRE -1264 -16 -1264 -112
WIRE -624 16 -640 16
WIRE -400 16 -624 16
WIRE -384 16 -400 16
WIRE -400 96 -640 96
WIRE -384 96 -400 96
WIRE -400 176 -640 176
WIRE -384 176 -400 176
FLAG -1264 -16 0
FLAG -768 -352 P1
FLAG -768 -192 P2
FLAG -624 -544 302.7V
FLAG -624 -208 5.558V
FLAG -624 16 3.537V
FLAG -496 -384 0
FLAG -384 96 0
FLAG -384 -48 0
FLAG -352 -416 0
SYMBOL ind2 -768 -368 R0
WINDOW 0 -29 35 Left 2
WINDOW 3 -244 74 Left 2
SYMATTR InstName P1
SYMATTR Value {PrimaryInductance}
SYMATTR Type ind
SYMATTR SpiceLine Rser={getValue(|Primary|,|DCR|)}
SYMBOL voltage -1264 -208 R0
WINDOW 123 0 0 Left 0
WINDOW 39 0 0 Left 0
WINDOW 0 -176 37 Left 2
WINDOW 3 -313 67 Left 2
SYMATTR InstName MainsPower
SYMATTR Value sine(0 {mainsPP} {Hz})
SYMBOL dpdt -880 -272 R270
SYMATTR InstName U1
SYMATTR Value set={switch}
SYMBOL ind2 -624 -448 R180
WINDOW 0 -57 63 Left 2
WINDOW 3 -227 34 Left 2
SYMATTR InstName HV1
SYMATTR Value {Inductance(|HV1|)}
SYMATTR Type ind
SYMATTR SpiceLine Rser={SeriesResistance(|HV1|)}
SYMBOL ind2 -624 -368 R180
WINDOW 0 -57 63 Left 2
WINDOW 3 -227 34 Left 2
SYMATTR InstName HV2
SYMATTR Value {Inductance(|HV2|)}
SYMATTR Type ind
SYMATTR SpiceLine Rser={SeriesResistance(|HV2|)}
SYMBOL ind2 -624 -288 R180
WINDOW 0 -57 63 Left 2
WINDOW 3 -227 34 Left 2
SYMATTR InstName HV3
SYMATTR Value {Inductance(|HV3|)}
SYMATTR Type ind
SYMATTR SpiceLine Rser={SeriesResistance(|HV3|)}
SYMBOL ind2 -624 -112 R180
WINDOW 0 -57 63 Left 2
WINDOW 3 -227 34 Left 2
SYMATTR InstName RF1
SYMATTR Value {Inductance(|RF|)}
SYMATTR Type ind
SYMATTR SpiceLine Rser={SeriesResistance(|RF|)}
SYMBOL ind2 -624 -32 R180
WINDOW 0 -57 63 Left 2
WINDOW 3 -227 34 Left 2
SYMATTR InstName RF2
SYMATTR Value {Inductance(|RF|)}
SYMATTR Type ind
SYMATTR SpiceLine Rser={SeriesResistance(|RF|)}
SYMBOL ind2 -624 112 R180
WINDOW 0 -57 63 Left 2
WINDOW 3 -227 34 Left 2
SYMATTR InstName HT1
SYMATTR Value {Inductance(|HT|)}
SYMATTR Type ind
SYMATTR SpiceLine Rser={SeriesResistance(|HT|)}
SYMBOL ind2 -624 192 R180
WINDOW 0 -57 63 Left 2
WINDOW 3 -227 34 Left 2
SYMATTR InstName HT2
SYMATTR Value {Inductance(|HT|)}
SYMATTR Type ind
SYMATTR SpiceLine Rser={SeriesResistance(|HT|)}
SYMBOL ind2 -768 -208 R0
WINDOW 0 -29 35 Left 2
WINDOW 3 -244 74 Left 2
SYMATTR InstName P2
SYMATTR Value {PrimaryInductance}
SYMATTR Type ind
SYMATTR SpiceLine Rser={getValue(|Primary|,|DCR|)}
SYMBOL res -416 0 R0
SYMATTR InstName R1
SYMATTR Value R = {loadResistor(|HT|, heater)}
SYMBOL res -304 736 R0
SYMATTR InstName R2
SYMATTR Value R = {loadResistor(|HT|, 3)}
SYMBOL res -400 -560 R0
SYMATTR InstName R3
SYMATTR Value R = {loadResistor(|HV3|, .091)}
SYMBOL res -400 -400 R0
SYMATTR InstName R4
SYMATTR Value R = {loadResistor(|HV3|, .091)}
SYMBOL res -400 -224 R0
SYMATTR InstName R5
SYMATTR Value R = {loadResistor(|RF|, recto)}
SYMBOL res -304 624 R0
SYMATTR InstName R6
SYMATTR Value R = {loadResistor(|RF|, 2)}
SYMBOL res -400 -144 R0
SYMATTR InstName R7
SYMATTR Value R = {loadResistor(|RF|, recto)}
SYMBOL res -416 80 R0
SYMATTR InstName R8
SYMATTR Value R = {loadResistor(|HT|, heater)}
TEXT -248 -416 Left 2 !.param primaryInductance = 5\n.func Primary(value) {table(value, |FIV|, 120 , |NIV|, 120, |DCR|, 12.46)}\n.func HV1(value) {table(value, |FIV|, 225 , |NIV|, (302.7-50.2), |FII|, 0.104)}\n.func HV2(value) {table(value, |FIV|, 50 , |NIV|, 50.2, |FII|, 0.104)}\n.func HV3(value) {table(value, |FIV|, 275 , |NIV|, 302.7, |FII|, 0.104)}\n.func RF(value) {table(value, |FIV|, 2.5 , |NIV|, (5.558/2), |FII|, 2)}\n.func HT(value) {table(value, |FIV|, 3.15 , |NIV|, (7.074/2), |FII|, 3)}
TEXT 32 -48 Left 2 !.func getValue(key, value) {table(key, 1, Primary(value), 2, HV1(value), 3, HV2(value), 4, HV3(value), 5, RF(value), 6, HT(value))}
TEXT -248 -472 Left 2 !.text Primary="1" HV1 = "2" HV2 = "3" HV3 = "4" RF = "5" HT = "6"\n.text FIV="1" NIV = "2" FII = "3" DCR = "4"
TEXT 32 -8 Left 2 !.func TurnsRatio(SV) {getValue(|Primary|,|FIV|)/SV}\n.func Regulation(FV, NV) {(NV-FV)/FV}\n.func SeriesResistance(w) {(getValue(w,|FIV|)*(Regulation(getValue(w,|FIV|), getValue(w,|NIV|))/2))/getValue(w,|FII|)}\n.func Inductance(w) = {PrimaryInductance/pwr(TurnsRatio(getValue(w,|NIV|)), 2)}\n.func loadResistor(w, i) {interpolateVoltage(w, i)/i}\n.func interpolateVoltage(w, i) {getValue(w, |NIV|) + (getValue(w, |FIV|) - getValue(w, |NIV|)) * i / getValue(w, |FII|)}
TEXT -1304 96 Left 2 !.param mainsVoltage=table(mains, 0, 120, 1, 240)
TEXT -1304 128 Left 2 !.param Hz=table(mains, 0, 60, 1, 50)
TEXT -1304 64 Left 2 !.tran 0 {18/Hz} {14/Hz} {18/Hz/1000000}
TEXT -1304 160 Left 2 !.param switch=table(mains, 0, 0, 1, 1)
TEXT -1488 -104 Left 2 !.param mains=0
TEXT -864 -616 Left 2 !K1 P1 P2 HV1 HV2 HV3 RF1 RF2 HT1 HT2 0.995
TEXT -1304 192 Left 2 !.param mainsPP=(mainsVoltage*sqrt(2))/0.99916
TEXT -696 352 Left 2 !.param recto= table(x, 0, 0.000001, 1, 1.9, 2, 2)\n.param heater= table(x, 0, 0.000001, 1, 1.8, 2, 3)\n.step param x list 0 1 2
TEXT -352 -880 Left 2 !.meas HTV RMS V(302.7V)
