.SUBCKT 1750E P1 B P2 Sp1 Sp2
* Push Pull transformer
* 8500 to 8 ohms, 3db 1 to 15000 hz
*  Hammond 1750E
*  15W Maximum Output
*  model generated by TransformerModels.xls 2023 Jan 20
*
LP1 1 B 175.067936394836
LP2 B 2 175.067936394836
LSA 3 Sp2 0.672420028425621
KALL LP1 LP2 LSA 0.99996190343155
RP1 P1 1 150
RP2 P2 2 150
RS Sp1 3 0.45
.ENDS 1750E

.SUBCKT 1750H P1 B P2 Sp1 Sp2
* Push Pull transformer
* 6600 to 8 ohms, 3db 70 to 15000 hz
*  Hammond 1750H
*  20W Maximum Output
*  model generated by TransformerModels.xls 2023 Jan 20
*
LP1 1 B 10.7
LP2 B 2 10.7
LSA 3 Sp2 0.02736
KALL LP1 LP2 LSA 1
RP1 P1 1 214
RP2 P2 2 214
RS Sp1 3 0.41
.ENDS 1750H
