Version 4
SHEET 1 2212 680
WIRE -640 -656 -656 -656
WIRE -368 -656 -640 -656
WIRE -400 -576 -656 -576
WIRE -368 -576 -400 -576
WIRE -400 -496 -656 -496
WIRE -368 -496 -400 -496
WIRE -400 -416 -656 -416
WIRE -368 -416 -400 -416
WIRE -1024 -352 -1264 -352
WIRE -768 -352 -1024 -352
WIRE -752 -352 -768 -352
WIRE -368 -336 -656 -336
WIRE -912 -288 -960 -288
WIRE -752 -272 -832 -272
WIRE -912 -256 -992 -256
WIRE -960 -208 -960 -288
WIRE -912 -208 -960 -208
WIRE -1264 -192 -1264 -352
WIRE -768 -192 -832 -192
WIRE -752 -192 -768 -192
WIRE -1024 -176 -1024 -352
WIRE -912 -176 -1024 -176
WIRE -624 -128 -640 -128
WIRE -496 -128 -624 -128
WIRE -992 -112 -992 -256
WIRE -992 -112 -1264 -112
WIRE -752 -112 -992 -112
WIRE -384 -48 -640 -48
WIRE -1264 -16 -1264 -112
WIRE -624 16 -640 16
WIRE -384 16 -624 16
WIRE -384 96 -640 96
WIRE -384 176 -640 176
FLAG -1264 -16 0
FLAG -768 -352 P1
FLAG -768 -192 P2
FLAG -640 -656 302.7V
FLAG -624 -128 5.558V
FLAG -624 16 3.537V
FLAG -384 96 0
FLAG -384 -48 0
FLAG -368 -496 0
SYMBOL ind2 -768 -368 R0
WINDOW 0 -29 35 Left 2
WINDOW 3 -244 74 Left 2
SYMATTR InstName P1
SYMATTR Value {PrimaryInductance}
SYMATTR Type ind
SYMATTR SpiceLine Rser={getValue(|Primary|,|DCR|)}
SYMBOL voltage -1264 -208 R0
WINDOW 123 0 0 Left 0
WINDOW 39 0 0 Left 0
WINDOW 0 -176 37 Left 2
WINDOW 3 -313 67 Left 2
SYMATTR InstName MainsPower
SYMATTR Value sine(0 {mainsPP} {Hz})
SYMBOL dpdt -880 -272 R270
SYMATTR InstName U1
SYMATTR Value set={switch}
SYMBOL ind2 -640 -560 R180
WINDOW 0 -57 63 Left 2
WINDOW 3 -227 34 Left 2
SYMATTR InstName HV1
SYMATTR Value {Inductance(|HV1|)}
SYMATTR Type ind
SYMATTR SpiceLine Rser={SeriesResistance(|HV1|)}
SYMBOL ind2 -640 -480 R180
WINDOW 0 -57 63 Left 2
WINDOW 3 -227 34 Left 2
SYMATTR InstName HV2
SYMATTR Value {Inductance(|HV2|)}
SYMATTR Type ind
SYMATTR SpiceLine Rser={SeriesResistance(|HV2|)}
SYMBOL ind2 -624 -32 R180
WINDOW 0 -57 63 Left 2
WINDOW 3 -227 34 Left 2
SYMATTR InstName RF
SYMATTR Value {Inductance(|RF|)}
SYMATTR Type ind
SYMATTR SpiceLine Rser={SeriesResistance(|RF|)}
SYMBOL ind2 -624 112 R180
WINDOW 0 -57 63 Left 2
WINDOW 3 -227 34 Left 2
SYMATTR InstName HT1
SYMATTR Value {Inductance(|HT|)}
SYMATTR Type ind
SYMATTR SpiceLine Rser={SeriesResistance(|HT|)}
SYMBOL ind2 -624 192 R180
WINDOW 0 -57 63 Left 2
WINDOW 3 -227 34 Left 2
SYMATTR InstName HT2
SYMATTR Value {Inductance(|HT|)}
SYMATTR Type ind
SYMATTR SpiceLine Rser={SeriesResistance(|HT|)}
SYMBOL ind2 -768 -208 R0
WINDOW 0 -29 35 Left 2
WINDOW 3 -244 74 Left 2
SYMATTR InstName P2
SYMATTR Value {PrimaryInductance}
SYMATTR Type ind
SYMATTR SpiceLine Rser={getValue(|Primary|,|DCR|)}
SYMBOL ind2 -640 -320 R180
WINDOW 0 -57 63 Left 2
WINDOW 3 -227 34 Left 2
SYMATTR InstName HV4
SYMATTR Value {Inductance(|HV1|)}
SYMATTR Type ind
SYMATTR SpiceLine Rser={SeriesResistance(|HV1|)}
SYMBOL ind2 -640 -400 R180
WINDOW 0 -57 63 Left 2
WINDOW 3 -227 34 Left 2
SYMATTR InstName HV3
SYMATTR Value {Inductance(|HV2|)}
SYMATTR Type ind
SYMATTR SpiceLine Rser={SeriesResistance(|HV2|)}
SYMBOL res -416 -512 R0
SYMATTR InstName R1
SYMATTR Value 3300
SYMBOL res -416 -592 R0
SYMATTR InstName R2
SYMATTR Value 3300
TEXT -248 -416 Left 2 !.param primaryInductance = 5\n.func Primary(value) {table(value, |FIV|, 120 , |NIV|, 120, |DCR|, (7.569+7.109)/2)}\n.func HV1(value) {table(value, |FIV|, (325-275) , |NIV|, (341.8-269.4), |FII|, 0.1)}\n.func HV2(value) {table(value, |FIV|, 275 , |NIV|, 289.4, |FII|, 0.1)}\n.func RF(value) {table(value, |FIV|, 5 , |NIV|, (5.316), |FII|, 3)}\n.func HT(value) {table(value, |FIV|, 3.15 , |NIV|, (6.835/2), |FII|, 2.25)}
TEXT -240 -64 Left 2 !.func getValue(key, value) {table(key, 1, Primary(value), 2, HV1(value), 3, HV2(value), 4, RF(value), 5, HT(value))}
TEXT -248 -472 Left 2 !.text Primary="1" HV1 = "2" HV2 = "3" RF = "4" HT = "5"\n.text FIV="1" NIV = "2" FII = "3" DCR = "4"
TEXT -240 -32 Left 2 !.func TurnsRatio(SV) {getValue(|Primary|,|FIV|)/SV}\n.func Regulation(FV, NV) {if(FV>getValue(|Primary|,|FIV|), ((NV-FV)/FV), ((NV-FV)/NV))}\n.func SeriesResistance(w) {(getValue(w,|FIV|)*(Regulation(getValue(w,|FIV|), getValue(w,|NIV|))/2))/getValue(w,|FII|)}\n.func Inductance(w) = {PrimaryInductance/pwr(TurnsRatio(getValue(w,|NIV|)), 2)}
TEXT -1304 96 Left 2 !.param mainsVoltage=table(mains, 0, 120, 1, 240)
TEXT -1304 128 Left 2 !.param Hz=table(mains, 0, 60, 1, 50)
TEXT -1304 64 Left 2 !.tran 0 {18/Hz} {14/Hz} {18/Hz/1000000}
TEXT -1304 160 Left 2 !.param switch=table(mains, 0, 0, 1, 1)
TEXT -1488 -104 Left 2 !.param mains=0
TEXT -880 -728 Left 2 !K1 P1 P2 HV1 HV2 HV3 HV4 RF HT1 HT2 1
TEXT -1304 192 Left 2 !.param mainsPP=(mainsVoltage*sqrt(2))/0.99916
