Version 4
SHEET 1 6104 2100
WIRE 1072 -2480 1040 -2480
WIRE 2304 -2448 2272 -2448
WIRE 1072 -2432 1072 -2480
WIRE 2816 -2432 2784 -2432
WIRE 3872 -2432 3504 -2432
WIRE 2304 -2400 2304 -2448
WIRE 1712 -2384 1712 -2416
WIRE 1792 -2384 1792 -2416
WIRE 2816 -2384 2816 -2432
WIRE 3504 -2368 3504 -2432
WIRE 3632 -2320 3552 -2320
WIRE 1072 -2304 1072 -2352
WIRE 1264 -2304 1072 -2304
WIRE 1408 -2304 1264 -2304
WIRE 1472 -2304 1408 -2304
WIRE 1568 -2304 1536 -2304
WIRE 1696 -2304 1648 -2304
WIRE 1920 -2304 1776 -2304
WIRE 2208 -2304 2192 -2304
WIRE 2304 -2304 2304 -2320
WIRE 2304 -2304 2288 -2304
WIRE 2384 -2304 2304 -2304
WIRE 2496 -2304 2448 -2304
WIRE 2752 -2304 2496 -2304
WIRE 2944 -2304 2816 -2304
WIRE 3072 -2304 3008 -2304
WIRE 3184 -2304 3072 -2304
WIRE 3344 -2304 3264 -2304
WIRE 3456 -2304 3344 -2304
WIRE 2496 -2288 2496 -2304
WIRE 3072 -2288 3072 -2304
WIRE 1408 -2272 1408 -2304
WIRE 1696 -2256 1696 -2304
WIRE 1712 -2256 1696 -2256
WIRE 1776 -2256 1776 -2304
WIRE 1072 -2240 1072 -2304
WIRE 1920 -2240 1920 -2304
WIRE 2192 -2240 2192 -2304
WIRE 3872 -2224 3872 -2432
WIRE 4128 -2224 4000 -2224
WIRE 2816 -2208 2816 -2304
WIRE 848 -2192 448 -2192
WIRE 912 -2192 848 -2192
WIRE 1024 -2192 992 -2192
WIRE 2096 -2192 1968 -2192
WIRE 2144 -2192 2096 -2192
WIRE 1408 -2160 1408 -2208
WIRE 1456 -2160 1408 -2160
WIRE 2752 -2160 2752 -2304
WIRE 2768 -2160 2752 -2160
WIRE 848 -2144 848 -2192
WIRE 1408 -2144 1408 -2160
WIRE 2496 -2144 2496 -2208
WIRE 3072 -2144 3072 -2208
WIRE 3072 -2144 2912 -2144
WIRE 3120 -2144 3072 -2144
WIRE 2608 -2128 2576 -2128
WIRE 2640 -2128 2608 -2128
WIRE 2752 -2128 2720 -2128
WIRE 3072 -2128 3072 -2144
WIRE 3248 -2128 3232 -2128
WIRE 3344 -2128 3328 -2128
WIRE 1040 -2112 1040 -2144
WIRE 1120 -2112 1040 -2112
WIRE 1456 -2112 1456 -2160
WIRE 1920 -2112 1920 -2160
WIRE 2160 -2112 2160 -2144
WIRE 2784 -2112 2784 -2128
WIRE 4128 -2112 4128 -2224
WIRE 1040 -2080 1040 -2112
WIRE 2752 -2080 2752 -2128
WIRE 2784 -2080 2784 -2112
WIRE 2784 -2080 2752 -2080
WIRE 3120 -2080 3120 -2144
WIRE 3232 -2080 3232 -2128
WIRE 3232 -2080 3184 -2080
WIRE 3344 -2080 3344 -2128
WIRE 3408 -2080 3344 -2080
WIRE 3472 -2080 3472 -2256
WIRE 3472 -2080 3408 -2080
WIRE 1120 -2064 1120 -2112
WIRE 2784 -2064 2784 -2080
WIRE 2848 -2064 2784 -2064
WIRE 3632 -2064 3632 -2320
WIRE 3648 -2064 3632 -2064
WIRE 3872 -2064 3824 -2064
WIRE 448 -2048 448 -2192
WIRE 2848 -2048 2848 -2064
WIRE 848 -2032 848 -2064
WIRE 2608 -2032 2608 -2128
WIRE 2640 -2032 2608 -2032
WIRE 2752 -2032 2752 -2080
WIRE 2752 -2032 2704 -2032
WIRE 3072 -2032 3072 -2048
WIRE 3104 -2032 3072 -2032
WIRE 3232 -2032 3232 -2080
WIRE 3248 -2032 3232 -2032
WIRE 3344 -2032 3344 -2080
WIRE 3344 -2032 3312 -2032
WIRE 1408 -2016 1408 -2064
WIRE 3104 -2016 3104 -2032
WIRE 2912 -2000 2912 -2144
WIRE 2912 -2000 2864 -2000
WIRE 2160 -1984 2160 -2032
WIRE 1040 -1968 1040 -2000
WIRE 1120 -1968 1120 -2000
WIRE 1120 -1968 1040 -1968
WIRE 3072 -1952 3072 -2032
WIRE 1040 -1936 1040 -1968
WIRE 3472 -1904 3472 -2080
WIRE 4128 -1904 4128 -2016
WIRE 4128 -1904 4000 -1904
WIRE 448 -1888 448 -1968
WIRE 2816 -1856 2816 -1952
WIRE 2944 -1856 2816 -1856
WIRE 3072 -1856 3072 -1872
WIRE 3072 -1856 3008 -1856
WIRE 3184 -1856 3072 -1856
WIRE 3344 -1856 3264 -1856
WIRE 3456 -1856 3344 -1856
WIRE 4128 -1856 4128 -1904
WIRE 2096 -1840 2096 -2192
WIRE 3632 -1840 3632 -2064
WIRE 3632 -1840 3552 -1840
WIRE 1264 -1792 1264 -2304
WIRE 1264 -1792 672 -1792
WIRE 2224 -1792 2144 -1792
WIRE 2816 -1728 2816 -1776
WIRE 2816 -1728 2784 -1728
WIRE 2096 -1712 2096 -1760
WIRE 3504 -1712 3504 -1792
WIRE 3872 -1712 3872 -1904
WIRE 3872 -1712 3504 -1712
WIRE 880 -1648 880 -1664
WIRE 928 -1648 880 -1648
WIRE 2096 -1648 1008 -1648
WIRE 2144 -1648 2096 -1648
WIRE 2224 -1648 2224 -1792
WIRE 2224 -1648 2208 -1648
WIRE 880 -1536 880 -1648
WIRE 672 -1488 672 -1792
WIRE 720 -1488 672 -1488
WIRE 832 -1488 800 -1488
WIRE 2096 -1456 2096 -1648
WIRE 848 -1408 848 -1440
WIRE 960 -1408 848 -1408
WIRE 1200 -1408 1024 -1408
WIRE 1248 -1408 1200 -1408
WIRE 1520 -1408 1312 -1408
WIRE 1712 -1408 1600 -1408
WIRE 1904 -1408 1712 -1408
WIRE 2048 -1408 1904 -1408
WIRE 2688 -1392 2656 -1392
WIRE 2928 -1392 2896 -1392
WIRE 3168 -1392 3136 -1392
WIRE 3408 -1392 3376 -1392
WIRE 3728 -1392 3696 -1392
WIRE 848 -1376 848 -1408
WIRE 1248 -1376 1248 -1408
WIRE 1312 -1376 1312 -1408
WIRE 2064 -1328 2064 -1360
WIRE 2160 -1328 2064 -1328
WIRE 2688 -1312 2688 -1392
WIRE 2752 -1312 2688 -1312
WIRE 2800 -1312 2752 -1312
WIRE 2928 -1312 2928 -1392
WIRE 2928 -1312 2880 -1312
WIRE 2992 -1312 2928 -1312
WIRE 3040 -1312 2992 -1312
WIRE 3168 -1312 3168 -1392
WIRE 3168 -1312 3120 -1312
WIRE 3232 -1312 3168 -1312
WIRE 3280 -1312 3232 -1312
WIRE 3408 -1312 3408 -1392
WIRE 3408 -1312 3360 -1312
WIRE 3488 -1312 3408 -1312
WIRE 3584 -1312 3488 -1312
WIRE 3600 -1312 3584 -1312
WIRE 3728 -1312 3728 -1392
WIRE 3728 -1312 3680 -1312
WIRE 3840 -1312 3728 -1312
WIRE 3872 -1312 3840 -1312
WIRE 1904 -1296 1904 -1408
WIRE 2064 -1296 2064 -1328
WIRE 2160 -1280 2160 -1328
WIRE 2752 -1280 2752 -1312
WIRE 2992 -1280 2992 -1312
WIRE 3232 -1280 3232 -1312
WIRE 3488 -1280 3488 -1312
WIRE 3584 -1280 3584 -1312
WIRE 3840 -1280 3840 -1312
WIRE 1200 -1248 1088 -1248
WIRE 1248 -1248 1248 -1296
WIRE 1248 -1248 1200 -1248
WIRE 1312 -1248 1312 -1296
WIRE 1712 -1248 1312 -1248
WIRE 1824 -1248 1712 -1248
WIRE 1904 -1184 1904 -1216
WIRE 2064 -1184 2064 -1216
WIRE 2064 -1184 1904 -1184
WIRE 2160 -1184 2160 -1216
WIRE 2160 -1184 2064 -1184
WIRE 2752 -1184 2752 -1216
WIRE 2992 -1184 2992 -1216
WIRE 3232 -1184 3232 -1216
WIRE 3488 -1184 3488 -1216
WIRE 3584 -1184 3584 -1216
WIRE 3840 -1184 3840 -1216
WIRE 848 -1152 848 -1296
WIRE 1088 -1152 1088 -1248
WIRE 1824 -1152 1824 -1248
WIRE 2064 -1152 2064 -1184
WIRE 3872 -1088 3872 -1312
WIRE 3872 -1088 3776 -1088
WIRE 2848 -1072 2608 -1072
WIRE 3120 -1072 2848 -1072
WIRE 3568 -1072 3200 -1072
WIRE 3648 -1072 3632 -1072
WIRE 3648 -1024 3632 -1024
WIRE 2960 -1008 2912 -1008
WIRE 3120 -992 3040 -992
WIRE 3344 -992 3200 -992
WIRE 2960 -976 2880 -976
WIRE 2912 -928 2912 -1008
WIRE 2960 -928 2912 -928
WIRE 2608 -912 2608 -1072
WIRE 3120 -912 3040 -912
WIRE 3344 -912 3200 -912
WIRE 3568 -912 3536 -912
WIRE 3632 -912 3632 -1024
WIRE 2848 -896 2848 -1072
WIRE 2960 -896 2848 -896
WIRE 2880 -832 2880 -976
WIRE 2880 -832 2608 -832
WIRE 3120 -832 2880 -832
WIRE 3536 -832 3536 -912
WIRE 3536 -832 3200 -832
WIRE 3456 -816 3200 -816
WIRE 2608 -736 2608 -832
WIRE 3456 -656 3456 -736
WIRE 3456 -656 3200 -656
WIRE 3504 -656 3456 -656
WIRE 3456 -640 3200 -640
WIRE 3456 -560 3200 -560
WIRE 3504 -560 3456 -560
WIRE 3456 -480 3200 -480
FLAG 3840 -1184 0
FLAG 3488 -1184 0
FLAG 3584 -1184 0
FLAG 3376 -1392 HT2
IOPIN 3376 -1392 BiDir
FLAG 3232 -1184 0
FLAG 3136 -1392 HT3
IOPIN 3136 -1392 BiDir
FLAG 2992 -1184 0
FLAG 2896 -1392 HT4
IOPIN 2896 -1392 BiDir
FLAG 1040 -1936 0
FLAG 848 -2032 0
FLAG 448 -1888 0
FLAG 1040 -2480 HT4
IOPIN 1040 -2480 BiDir
FLAG 1408 -2016 0
FLAG 1920 -2112 0
FLAG 2160 -1984 0
FLAG 2272 -2448 HT4
IOPIN 2272 -2448 BiDir
FLAG 2496 -2144 0
FLAG 848 -1152 0
FLAG 880 -1664 HT5
IOPIN 880 -1664 BiDir
FLAG 1200 -1408 RevUnitIn+
FLAG 1200 -1248 RevUnitIn-
FLAG 1712 -1248 RevUnitOut-
FLAG 1712 -1408 RevUnitOut+
FLAG 2064 -1152 0
FLAG 2096 -1712 0
FLAG 2576 -2128 0
FLAG 2784 -2432 HT3
IOPIN 2784 -2432 BiDir
FLAG 2784 -1728 HT3
IOPIN 2784 -1728 BiDir
FLAG 3104 -2016 0
FLAG 4128 -1856 0
FLAG 3648 -2064 HT2
IOPIN 3648 -2064 BiDir
FLAG 3824 -2064 HT1
IOPIN 3824 -2064 BiDir
FLAG 3184 -2080 0
FLAG 4128 -2224 Output
FLAG 1920 -2304 VolumePotIn
FLAG 1088 -1152 0
FLAG 2752 -1184 0
FLAG 2656 -1392 HT5
IOPIN 2656 -1392 BiDir
FLAG 1824 -1152 0
FLAG 2608 -736 0
FLAG 3344 -912 0
FLAG 3504 -560 0
FLAG 3504 -656 0
FLAG 3344 -2304 PI+
FLAG 3344 -1856 PI-
FLAG 3696 -1392 HT1
IOPIN 3696 -1392 BiDir
FLAG 3408 -2080 Cathode
FLAG 3504 -2432 Plates
FLAG 3632 -2320 Screens
SYMBOL res 3696 -1296 M270
WINDOW 0 32 56 VTop 2
WINDOW 3 0 56 VBottom 2
SYMATTR InstName R1
SYMATTR Value 1K
SYMBOL cap 3856 -1280 M0
SYMATTR InstName C1
SYMATTR Value 32µ
SYMATTR SpiceLine Rser=3.8
SYMBOL cap 3600 -1280 M0
SYMATTR InstName C2
SYMATTR Value 32µ
SYMATTR SpiceLine Rser=3.8
SYMBOL res 3376 -1296 M270
WINDOW 0 32 56 VTop 2
WINDOW 3 0 56 VBottom 2
SYMATTR InstName R2
SYMATTR Value 4.7K
SYMBOL cap 3504 -1280 M0
SYMATTR InstName C3
SYMATTR Value 10µ
SYMATTR SpiceLine Rser=3.8
SYMBOL res 3136 -1296 M270
WINDOW 0 32 56 VTop 2
WINDOW 3 0 56 VBottom 2
SYMATTR InstName R3
SYMATTR Value 4.7K
SYMBOL cap 3248 -1280 M0
SYMATTR InstName C4
SYMATTR Value 32µ
SYMATTR SpiceLine Rser=3.8
SYMBOL cap 3008 -1280 M0
SYMATTR InstName C5
SYMATTR Value 32µ
SYMATTR SpiceLine Rser=3.8
SYMBOL triode 1072 -2192 R0
WINDOW 0 61 -72 Left 2
WINDOW 3 61 -16 Invisible 2
WINDOW 38 53 -41 Left 2
SYMATTR InstName V2A
SYMATTR Value ""
SYMATTR SpiceModel 12AX7
SYMBOL res 1024 -2096 R0
SYMATTR InstName R5
SYMATTR Value 1K
SYMBOL res 1056 -2448 R0
SYMATTR InstName R6
SYMATTR Value 56K
SYMBOL cap 1104 -2064 R0
SYMATTR InstName C7
SYMATTR Value 25µ
SYMBOL res 896 -2176 R270
WINDOW 0 32 56 VTop 2
WINDOW 3 0 56 VBottom 2
SYMATTR InstName R7
SYMATTR Value 68K
SYMBOL res 832 -2160 R0
SYMATTR InstName R8
SYMATTR Value 1Meg
SYMBOL voltage 448 -2064 R0
WINDOW 123 28 132 Left 2
WINDOW 39 26 159 Left 2
SYMATTR Value2 AC 1 0
SYMATTR SpiceLine Rser=5K
SYMATTR InstName V2
SYMATTR Value SINE(0 {Amplitude} {SigHz} 14.5
SYMBOL potentiometer_standard 1392 -2048 M180
WINDOW 39 50 119 Left 0
WINDOW 0 48 16 Left 1
SYMATTR SpiceLine Rtap=25k tap=0.5
SYMATTR InstName TonePot
SYMATTR Value Rtot=250K wiper={TONE}
SYMATTR SpiceModel pot_pow
SYMBOL cap 1392 -2272 R0
SYMATTR InstName C8
SYMATTR Value 0.022µ
SYMBOL dpdt 1776 -2352 R0
WINDOW 0 -79 -92 Right 1
WINDOW 3 -119 -73 Right 0
SYMATTR InstName UK/US-Switch
SYMATTR Value SET={UKUS}
SYMBOL cap 1712 -2240 R270
WINDOW 0 -29 32 VTop 2
WINDOW 3 -31 31 VBottom 2
SYMATTR InstName C9
SYMATTR Value 250p
SYMBOL res 1664 -2320 R90
WINDOW 0 0 56 VBottom 2
WINDOW 3 32 56 VTop 2
SYMATTR InstName R9
SYMATTR Value 470K
SYMBOL res 1808 -2432 R90
WINDOW 0 23 -26 VBottom 2
WINDOW 3 22 -28 VTop 2
SYMATTR InstName R10
SYMATTR Value 470k
SYMBOL potentiometer_standard 1904 -2256 R0
WINDOW 39 49 103 Left 0
WINDOW 0 48 16 Left 1
SYMATTR SpiceLine Rtap=100K tap=0.5
SYMATTR InstName VolumePot
SYMATTR Value Rtot=1MEG wiper={VOL}
SYMATTR SpiceModel pot_pow
SYMBOL triode 2192 -2192 R0
WINDOW 0 66 -15 Left 2
WINDOW 3 61 -16 Invisible 2
WINDOW 38 63 11 Left 2
SYMATTR InstName V2B
SYMATTR Value ""
SYMATTR SpiceModel 12AX7
SYMBOL res 2144 -2128 R0
SYMATTR InstName R11
SYMATTR Value 2.2K
SYMBOL res 2288 -2416 R0
SYMATTR InstName R12
SYMATTR Value 4.7K
SYMBOL res 2304 -2320 R90
WINDOW 0 0 56 VBottom 2
WINDOW 3 32 56 VTop 2
SYMATTR InstName R13
SYMATTR Value 100K
SYMBOL cap 2448 -2320 R90
WINDOW 0 0 32 VBottom 2
WINDOW 3 32 32 VTop 2
SYMATTR InstName C11
SYMATTR Value 0.022µ
SYMBOL res 2480 -2304 R0
SYMATTR InstName R14
SYMATTR Value 100K
SYMBOL triode 880 -1488 R0
WINDOW 0 61 -72 Left 2
WINDOW 3 61 -16 Invisible 2
WINDOW 38 53 -41 Left 2
SYMATTR InstName V1A
SYMATTR Value ""
SYMATTR SpiceModel 12AU7
SYMBOL res 832 -1392 R0
SYMATTR InstName R15
SYMATTR Value 100K
SYMBOL cap 1024 -1424 R90
WINDOW 0 0 32 VBottom 2
WINDOW 3 32 32 VTop 2
SYMATTR InstName C12
SYMATTR Value 0.22µ
SYMBOL res 704 -1472 R270
WINDOW 0 32 56 VTop 2
WINDOW 3 0 56 VBottom 2
SYMATTR InstName R17
SYMATTR Value 220k
SYMBOL bv 1312 -1392 R0
WINDOW 3 41 58 Left 2
WINDOW 123 41 86 Left 2
SYMATTR Value V=delay(V(RevUnitIn+)/3,0.037)
SYMATTR Value2 +delay(V(RevUnitOut+)/3,0.01)
SYMATTR InstName B1
SYMBOL res 2048 -1312 R0
SYMATTR InstName R19
SYMATTR Value 2.2K
SYMBOL cap 2144 -1280 R0
SYMATTR InstName C13
SYMATTR Value 25µ
SYMBOL res 1888 -1312 R0
SYMATTR InstName R22
SYMATTR Value 27K
SYMBOL cap 2208 -1664 R90
WINDOW 0 0 32 VBottom 2
WINDOW 3 32 32 VTop 2
SYMATTR InstName C14
SYMATTR Value 500pf
SYMBOL potentiometer_standard 2080 -1856 R0
WINDOW 39 45 104 Left 0
WINDOW 0 48 16 Left 1
WINDOW 3 44 87 Left 0
SYMATTR SpiceLine Rtap=50k tap=0.5
SYMATTR InstName ReverbPot
SYMATTR Value Rtot=500K wiper={REVERB}
SYMATTR SpiceModel pot_pow
SYMBOL cap 1536 -2320 R90
WINDOW 0 0 32 VBottom 2
WINDOW 3 32 32 VTop 2
SYMATTR InstName C10
SYMATTR Value 0.022µ
SYMBOL triode 2816 -2160 R0
WINDOW 0 61 -72 Left 2
WINDOW 3 61 -16 Invisible 2
WINDOW 38 53 -41 Left 2
SYMATTR InstName V3A
SYMATTR Value ""
SYMATTR SpiceModel 12AX7
SYMBOL triode 2816 -2000 R180
WINDOW 0 61 -72 Left 2
WINDOW 3 61 -16 Invisible 2
WINDOW 38 53 -41 Left 2
SYMATTR InstName V3B
SYMATTR Value ""
SYMATTR SpiceModel 12AX7
SYMBOL res 2736 -2144 R90
WINDOW 0 0 56 VBottom 2
WINDOW 3 32 56 VTop 2
SYMATTR InstName R24
SYMATTR Value 470
SYMBOL cap 2704 -2048 R90
WINDOW 0 0 32 VBottom 2
WINDOW 3 32 32 VTop 2
SYMATTR InstName C15
SYMATTR Value 25µ
SYMBOL res 2800 -2400 R0
SYMATTR InstName R25
SYMATTR Value 100K
SYMBOL res 2800 -1760 M180
WINDOW 0 36 76 Left 2
WINDOW 3 36 40 Left 2
SYMATTR InstName R26
SYMATTR Value 100K
SYMBOL cap 3008 -2320 R90
WINDOW 0 0 32 VBottom 2
WINDOW 3 32 32 VTop 2
SYMATTR InstName C16
SYMATTR Value 0.022µ
SYMBOL cap 3008 -1872 R90
WINDOW 0 0 32 VBottom 2
WINDOW 3 32 32 VTop 2
SYMATTR InstName C17
SYMATTR Value 0.022µ
SYMBOL res 3056 -2304 R0
SYMATTR InstName R27
SYMATTR Value 220K
SYMBOL res 3056 -1968 R0
SYMATTR InstName R28
SYMATTR Value 220K
SYMBOL potentiometer_standard 3056 -2144 R0
WINDOW 39 -92 16 Left 0
WINDOW 0 -157 67 Left 1
WINDOW 3 -133 32 Left 0
WINDOW 38 -39 49 Left 0
SYMATTR SpiceLine Rtap=5K tap=0.5
SYMATTR InstName PhaseInvBalancePot
SYMATTR Value Rtot=10K wiper={PIBAL}
SYMBOL res 3280 -2320 R90
WINDOW 0 0 56 VBottom 2
WINDOW 3 32 56 VTop 2
SYMATTR InstName R29
SYMATTR Value 1.5K
SYMBOL res 3280 -1872 R90
WINDOW 0 0 56 VBottom 2
WINDOW 3 32 56 VTop 2
SYMATTR InstName R30
SYMATTR Value 1.5K
SYMBOL Misc/tetrode 3504 -2320 R0
SYMATTR InstName V4
SYMATTR Value 6V6GT
SYMBOL Misc/tetrode 3504 -1840 M180
SYMATTR InstName V5
SYMATTR Value 6V6GT
SYMBOL res 3344 -2144 R90
WINDOW 0 0 56 VBottom 2
WINDOW 3 32 56 VTop 2
SYMATTR InstName R32
SYMATTR Value 250
SYMBOL cap 3312 -2048 R90
WINDOW 0 0 32 VBottom 2
WINDOW 3 32 32 VTop 2
SYMATTR InstName C18
SYMATTR Value 25µ
SYMBOL res 912 -1632 R270
WINDOW 0 32 56 VTop 2
WINDOW 3 0 56 VBottom 2
SYMATTR InstName R34
SYMATTR Value 470K
SYMBOL triode 2096 -1408 R0
WINDOW 0 61 -72 Left 2
WINDOW 3 61 -16 Invisible 2
WINDOW 38 53 -41 Left 2
SYMATTR InstName V1B
SYMATTR Value ""
SYMATTR SpiceModel 12AX7
SYMBOL ind 1232 -1392 R0
WINDOW 0 -51 41 Left 2
WINDOW 3 -66 85 Left 2
SYMATTR InstName L4
SYMATTR Value 150
SYMATTR SpiceLine Rser=58
SYMBOL ind 1616 -1392 M270
WINDOW 0 32 56 VTop 2
WINDOW 3 5 56 VBottom 2
SYMATTR InstName L5
SYMATTR Value 400m
SYMATTR SpiceLine Rser=200
SYMBOL transPPc 3856 -2224 R0
SYMATTR InstName U3
SYMATTR Value 1750E
SYMBOL res 2896 -1296 M270
WINDOW 0 32 56 VTop 2
WINDOW 3 0 56 VBottom 2
SYMATTR InstName R16
SYMATTR Value 4.7K
SYMBOL cap 2768 -1280 M0
SYMATTR InstName C19
SYMATTR Value 47µ
SYMATTR SpiceLine Rser=3.8
SYMBOL vrectifier 3712 -1056 R0
WINDOW 3 -1 -38 Center 0
SYMATTR Value GZ34
SYMATTR InstName U2
SYMATTR SpiceModel GZ34
SYMBOL diode 3568 -1056 R270
WINDOW 0 32 32 VTop 2
WINDOW 3 0 32 VBottom 2
SYMATTR InstName D2
SYMATTR Value 1N4007
SYMBOL ind2 3104 -1088 R0
WINDOW 0 -29 35 Left 2
WINDOW 3 -244 74 Left 2
SYMATTR InstName P1
SYMATTR Value {PrimaryInductance}
SYMATTR Type ind
SYMATTR SpiceLine Rser={getValue(|Primary|,|DCR|)}
SYMBOL voltage 2608 -928 R0
WINDOW 123 0 0 Left 0
WINDOW 39 0 0 Left 0
WINDOW 0 -176 37 Left 2
WINDOW 3 -313 67 Left 2
SYMATTR InstName MainsPower1
SYMATTR Value sine(0 {mainsPP} {Hz})
SYMBOL dpdt 2992 -992 R270
SYMATTR InstName U1
SYMATTR Value set={vswitch}
SYMBOL ind2 3216 -976 R180
WINDOW 0 -57 63 Left 2
WINDOW 3 -227 34 Left 2
SYMATTR InstName HV1
SYMATTR Value {Inductance(|HV1|)}
SYMATTR Type ind
SYMATTR SpiceLine Rser={SeriesResistance(|HV1|)}
SYMBOL ind2 3216 -896 R180
WINDOW 0 -57 63 Left 2
WINDOW 3 -227 34 Left 2
SYMATTR InstName HV2
SYMATTR Value {Inductance(|HV2|)}
SYMATTR Type ind
SYMATTR SpiceLine Rser={SeriesResistance(|HV2|)}
SYMBOL ind2 3216 -816 R180
WINDOW 0 -58 66 Left 2
WINDOW 3 -232 34 Left 2
SYMATTR InstName HV3
SYMATTR Value {Inductance(|HV3|)}
SYMATTR Type ind
SYMATTR SpiceLine Rser={SeriesResistance(|HV3|)}
SYMBOL ind2 3216 -720 R180
WINDOW 0 -57 63 Left 2
WINDOW 3 -227 34 Left 2
SYMATTR InstName RF1
SYMATTR Value {Inductance(|RF|)}
SYMATTR Type ind
SYMATTR SpiceLine Rser={SeriesResistance(|RF|)}
SYMBOL ind2 3216 -640 R180
WINDOW 0 -57 63 Left 2
WINDOW 3 -227 34 Left 2
SYMATTR InstName RF2
SYMATTR Value {Inductance(|RF|)}
SYMATTR Type ind
SYMATTR SpiceLine Rser={SeriesResistance(|RF|)}
SYMBOL ind2 3216 -544 R180
WINDOW 0 -57 63 Left 2
WINDOW 3 -227 34 Left 2
SYMATTR InstName HT1
SYMATTR Value {Inductance(|HT|)}
SYMATTR Type ind
SYMATTR SpiceLine Rser={SeriesResistance(|HT|)}
SYMBOL ind2 3216 -576 M0
WINDOW 0 -54 48 Left 2
WINDOW 3 -223 78 Left 2
SYMATTR InstName HT2
SYMATTR Value {Inductance(|HT|)}
SYMATTR Type ind
SYMATTR SpiceLine Rser={SeriesResistance(|HT|)}
SYMBOL ind2 3104 -928 R0
WINDOW 0 -29 35 Left 2
WINDOW 3 -244 74 Left 2
SYMATTR InstName P2
SYMATTR Value {PrimaryInductance}
SYMATTR Type ind
SYMATTR SpiceLine Rser={getValue(|Primary|,|DCR|)}
SYMBOL res 3440 -656 R0
SYMATTR InstName R20
SYMATTR Value 1.836
SYMBOL res 3440 -576 R0
SYMATTR InstName R21
SYMATTR Value 1.836
SYMBOL res 3440 -832 R0
SYMATTR InstName R23
SYMATTR Value 2.646263158
SYMBOL diode 3568 -896 R270
WINDOW 0 32 32 VTop 2
WINDOW 3 0 32 VBottom 2
SYMATTR InstName D1
SYMATTR Value 1N4007
SYMBOL Speaker 4176 -2064 R0
WINDOW 0 164 110 Right 2
SYMATTR InstName Celestion_G12M
SYMATTR SpiceModel G12M
SYMATTR Value G12M
SYMATTR SpiceLine G12M
TEXT 3016 -1512 Left 4 ;Power Supply
TEXT 3936 -2776 Left 2 !.INC Rydel_Tubes.INC
TEXT 448 -952 Left 2 !;ac oct 10 20 20k
TEXT 336 -2808 Left 5 ;Benson Monarch Reverb\nLTspice Schematic Hoodnight 2023
TEXT 1064 -960 Left 2 !.param Tone = 1.0
TEXT 1064 -992 Left 2 !.param Vol = 1.0
TEXT 1720 -2488 Left 1 ;1 = US \n0 = UK
TEXT 1064 -888 Left 2 !.param UKUS = 1
TEXT 1064 -856 Left 2 !.param Reverb = 0.0
TEXT 1064 -824 Left 2 !.param PIBal = 0.45
TEXT 1408 -1472 Left 2 ;8EB4C1B
TEXT 3936 -2808 Left 2 !.INC potentiometer_standard.lib
TEXT 1072 -1040 Left 3 ;Controls:
TEXT 3936 -2848 Left 3 ;Required Files
TEXT 448 -1040 Left 3 ;Simulation Commands
TEXT 3936 -2744 Left 2 !.INC G12M.INC
TEXT 448 -880 Left 2 !.tran 0 {15+(8/Hz)} 15 {15/10000}
TEXT 1416 -960 Left 2 !.param SigHz = 1000
TEXT 1424 -1040 Left 3 ;Input Signal:
TEXT 1416 -992 Left 2 !.param Amplitude = 0.04
TEXT 3936 -2712 Left 2 !.INC HammondTransformers.inc
TEXT 1824 -960 Left 2 !.param mains = 2
TEXT 1824 -1032 Left 3 ;Mains Voltage
TEXT 448 -808 Left 2 !;tran 0 11 10
TEXT 3784 -728 Left 0 !.param primaryInductance = 5\n.func Primary(value) {table(value, |FIV|, 120 , |NIV|, 120, |DCR|, 12.46)}\n.func HV1(value) {table(value, |FIV|, 225 , |NIV|, (302.7-50.2), |FII|, 0.104)}\n.func HV2(value) {table(value, |FIV|, 50 , |NIV|, 50.2, |FII|, 0.104)}\n.func HV3(value) {table(value, |FIV|, 275 , |NIV|, 302.7, |FII|, 0.104)}\n.func RF(value) {table(value, |FIV|, 2.5 , |NIV|, (5.558/2), |FII|, 2)}\n.func HT(value) {table(value, |FIV|, 3.15 , |NIV|, (7.074/2), |FII|, 3)}
TEXT 3736 -504 Left 0 !.func getValue(key, value) {table(key, 1, Primary(value), 2, HV1(value), 3, HV2(value), 4, HV3(value), 5, RF(value), 6, HT(value))}
TEXT 3784 -752 Left 0 !.text Primary="1" HV1 = "2" HV2 = "3" HV3 = "4" RF = "5" HT = "6"\n.text FIV="1" NIV = "2" FII = "3" DCR = "4"
TEXT 3736 -472 Left 0 !.func TurnsRatio(SV) {getValue(|Primary|,|FIV|)/SV}\n.func Regulation(FV, NV) {if(FV>getValue(|Primary|,|FIV|), ((NV-FV)/FV), ((NV-FV)/NV))}\n.func SeriesResistance(w) {(getValue(w,|FIV|)*(Regulation(getValue(w,|FIV|), getValue(w,|NIV|))/2))/getValue(w,|FII|)}\n.func Inductance(w) = {PrimaryInductance/pwr(TurnsRatio(getValue(w,|NIV|)), 2)}
TEXT 2608 -672 Left 0 !.param mainsVoltage=table(mains, 1, 120, 2, 240)
TEXT 2608 -640 Left 0 !.param Hz=table(mains, 1, 60, 2, 50)
TEXT 2608 -608 Left 0 !.param vswitch=table(mains, 1, 0, 2, 1)
TEXT 2968 -1112 Left 2 !K1 P1 P2 HV1 HV2 HV3 RF1 RF2 HT1 HT2 1
TEXT 2608 -576 Left 0 !.param mainsPP=(mainsVoltage*sqrt(2))/0.99916
TEXT 3792 -856 Left 0 !.model 1n4007 d is = 1.09774E-008 n = 1.78309 rs = 0.0414388\n+ eg = 1.11 xti = 3\n+ cjo = 2.8173E-011 vj = 0.50772 m = 0.318974 fc = 0.5\n+ tt = 9.85376E-006 bv = 1100 ibv = 0.1 af = 1 kf = 0
TEXT 3016 -1472 Left 2 ;Original unknown, but roughly 275-0-275.\nHammond 370DX used below.
TEXT 456 -984 Left 2 ;Frequency Response
TEXT 456 -912 Left 2 ;AC with signal
TEXT 456 -840 Left 2 ;AC idle
TEXT 1832 -992 Left 2 ;1 for 120V/60Hz, 2 for 240V/50Hz
TEXT 1072 -920 Left 2 ;UK = 0, US = 1
RECTANGLE Normal 1808 -1232 1104 -1456
RECTANGLE Normal 4432 -384 240 -2912 2
